<Qucs Library 24.2.1 "power_electronics">

<Component ideal_diode>
  <Description>
ideal diode with forward voltage
  </Description>
  <Model>
.Def:power_electronics_ideal_diode _net0 _net2 Vth="0.7"
Vdc:V1 _net1 _net2 U="Vth"
Relais:S1 _net0 _net0 _net1 _net1 Vt="0 V" Vh="0 V" Ron="1e-4" Roff="1e7" Temp="26.85"
C:C1 _net2 _net0 C="1 nF" V=""
.Def:End
  </Model>
  <Spice>* Qucs 24.2.1  power_electronics_ideal_diode.sch

.SUBCKT power_electronics_ideal_diode  gnd _net0 _net2 Vth=0.7 
V1 _net1 _net2 DC {VTH}
S1 _net0 _net1 _net0 _net1 MOD_S1 OFF
.MODEL  MOD_S1 sw vt=0 vh=0 ron=1E-4 roff=1E7 
C1 _net2 _net0  1N 
.ENDS
  </Spice>
  <Symbol>
    <.PortSym -30 0 1 180>
    <.PortSym 40 0 2 0>
    <Line -30 0 70 0 #00007f 2 1>
    <Line -10 -10 0 20 #00007f 2 1>
    <Line 10 0 -20 10 #00007f 2 1>
    <Line -10 -10 20 10 #00007f 2 1>
    <Line 10 -10 0 0 #000000 1 1>
    <Line 10 10 0 -20 #00007f 2 1>
    <.ID -20 14 D "1=Vth=0.7=Diode Forward Voltage=">
  </Symbol>
</Component>

<Component ideal_switch>
  <Description>
ideal switch with freewheeling diode
  </Description>
  <Model>
.Def:power_electronics_ideal_switch _net2 _net1 _net0 Vth="0.7"
Relais:S1 _net0 _net2 _net1 gnd Vt="0.5 V" Vh="0.0 V" Ron="0.1e-3" Roff="1e7" Temp="26.85"
Sub:SUB1 _net1 _net2 Type="ideal_diode" Vth="0.7"
.Def:End
  </Model>
  <ModelIncludes "ideal_diode.sch.lst">
  <Spice>* Qucs 24.2.1  power_electronics_ideal_switch.sch
* Qucs 24.2.1  D:/Repos/GitHub/powerelectronics_lib_qucs-s/ideal_diode.sch
.SUBCKT ideal_diode _net0 _net2 Vth=0.7 
V1 _net1 _net2 DC {VTH}
S1 _net0 _net1 _net0 _net1 MOD_S1 OFF
.MODEL  MOD_S1 sw vt=0 vh=0 ron=1E-4 roff=1E7 
C1 _net2 _net0  1N 
.ENDS

.SUBCKT power_electronics_ideal_switch  gnd _net2 _net1 _net0 Vth=0.7 
S1 _net2 _net1 _net0 0 MOD_S1 OFF
.MODEL  MOD_S1 sw vt=0.5 vh=0 ron=0.1E-3 roff=1E7 
XSUB1 _net1 _net2 ideal_diode Vth=0.7
.ENDS
  </Spice>
  <Symbol>
    <Line 30 0 -20 0 #00007f 2 1>
    <Line 10 0 -27 -11 #00007f 2 1>
    <Line -40 0 23 0 #00007f 2 1>
    <Line 0 -30 0 26 #00007f 2 2>
    <Line -24 0 0 16 #00007f 2 1>
    <Line 15 16 0 -16 #00007f 2 1>
    <Line -24 16 39 0 #00007f 2 1>
    <Line 1 16 -7 -5 #00007f 2 1>
    <Line -6 21 0 -10 #00007f 2 1>
    <Line 1 11 0 10 #00007f 2 1>
    <Line -6 21 7 -5 #00007f 2 1>
    <Ellipse 16 -1 -2 2 #000000 1 1 #00007f 1 1>
    <Ellipse -23 -1 -2 2 #000000 1 1 #00007f 1 1>
    <Ellipse 12 -2 -4 4 #00007f 2 1 #c0c0c0 1 0>
    <Ellipse -15 -2 -4 4 #00007f 2 1 #c0c0c0 1 0>
    <.PortSym 0 -30 3 0>
    <.ID -38 23 S "0=Vth=0.7=Diode Forward Voltage=">
    <.PortSym -41 0 2 180>
    <.PortSym 30 0 1 0>
  </Symbol>
</Component>

<Component triangular_voltage>
  <Description>
ideal triangular wave source
  </Description>
  <Model>
.Def:power_electronics_triangular_voltage _net0 _net1 vh="1" voff="0" tper="2e-3" duty="0.5" td="0"
Eqn:Eqn1 tpos="tper*duty" tneg="tper*(1-duty)" vamp="vh*2" vdcoff="voff-1" Export="no"
Vrect:V1 _net0 _net2 U="vamp" TH="tpos" TL="tneg" Tr="tpos" Tf="tneg" Td="td"
Vdc:V1 _net2 _net1 U="vdcoff"
.Def:End
  </Model>
  <Spice>* Qucs 24.2.1  power_electronics_triangular_voltage.sch

.SUBCKT power_electronics_triangular_voltage  gnd _net0 _net1 Vh=1 Voff=0 tper=1e-3 duty=0.5 td=0
.PARAM VDCO=VOFF
.PARAM TPOS=TPER*DUTY
.PARAM TNEG=TPER*(1-DUTY)
V1 _net0 _net2 DC 0 PULSE( {-VH} {VH} {TD} {TPOS} {TNEG} 1e-9 {TPER} )  AC 0
V2 _net2 _net1 DC {VDCO}
.ENDS
  </Spice>
  <Symbol>
    <Ellipse -12 -12 24 24 #00007f 2 1 #c0c0c0 1 0>
    <Line -12 0 -18 0 #00007f 2 1>
    <Line 12 0 18 0 #00007f 2 1>
    <Line -5 0 11 4 #00007f 2 1>
    <Line 6 4 -11 4 #00007f 2 1>
    <Line 6 -4 -11 4 #00007f 2 1>
    <Line -5 -8 11 4 #00007f 2 1>
    <.PortSym -30 0 2 0>
    <.PortSym 30 0 1 180>
    <.ID -21 14 V "0=vh=2=Peak-to-peak voltage=" "0=voff=0=Offset DC voltage=" "0=tper=1e-3=Period=" "0=duty=0.5=duty cycle=" "0=td=0=Delay=">
    <Text -28 11 12 #0000ff 90 "-">
    <Text 8 15 12 #ff0000 90 "+">
  </Symbol>
</Component>

<Component ideal_comparator>
  <Description>
Ideal comparator
  </Description>
  <Model>
.Def:power_electronics_ideal_comparator cp cm out1
CCVS:SRC2 gnd out1 gnd _net0 G="1 Ohm" T="0"
EDD:D1 _net0 gnd cp gnd cm gnd I1="D1.I1" Q1="D1.Q1" I2="D1.I2" Q2="D1.Q2" I3="D1.I3" Q3="D1.Q3"
  Eqn:EqnD1I1 D1.I1="V2>V3 ? 1 : 0" Export="no"
  Eqn:EqnD1Q1 D1.Q1="0" Export="no"
  Eqn:EqnD1I2 D1.I2="0" Export="no"
  Eqn:EqnD1Q2 D1.Q2="0" Export="no"
  Eqn:EqnD1I3 D1.I3="0" Export="no"
  Eqn:EqnD1Q3 D1.Q3="0" Export="no"
.Def:End
  </Model>
  <Spice>* Qucs 24.2.1  power_electronics_ideal_comparator.sch

.SUBCKT power_electronics_ideal_comparator  gnd cp cm out1 
B1 out1 gnd  V = V(cp)>V(cm) ? 1 : 0 
.ENDS
  </Spice>
  <Symbol>
    <.ID -20 44 X>
    <Line -10 -30 0 60 #00007f 2 1>
    <Line -20 -20 10 0 #000080 2 1>
    <Line -20 20 10 0 #00007f 2 1>
    <.PortSym -20 20 2 0>
    <Line 20 0 -30 -30 #00007f 2 1>
    <Line 20 0 10 0 #000080 2 1>
    <Line -10 30 30 -30 #00007f 2 1>
    <.PortSym -20 -20 1 0>
    <.PortSym 30 0 3 180>
    <Line 0 -7 0 14 #00007f 3 1>
    <Line -4 7 4 0 #00007f 3 1>
    <Line 0 -7 4 0 #00007f 3 1>
    <Ellipse -10 17 6 6 #00007f 2 1 #ff0000 1 1>
  </Symbol>
</Component>

